10
[CAM-B3LYP-D3BJ/def2TZVP]
C 0.000000 0.000000 0.183292
C 0.000000 1.281986 -0.608589
C 0.000000 -1.281986 -0.608589
O 0.000000 0.000000 1.387614
H 0.877241 1.323628 -1.257030
H -0.877241 1.323628 -1.257030
H 0.000000 2.134236 0.065263
H 0.000000 -2.134236 0.065263
H 0.877241 -1.323628 -1.257030
H -0.877241 -1.323628 -1.257030
