21
[CAM-B3LYP-D3BJ/def2TZVP]
Fe 0.000000 0.000000 0.000000
C 0.000000 1.205353 1.669158
C -1.146359 0.372475 1.669158
C 1.146359 0.372475 1.669158
C -0.708489 -0.975151 1.669158
C 0.708489 -0.975151 1.669158
C 0.000000 1.205353 -1.669158
C -1.146359 0.372475 -1.669158
C 1.146359 0.372475 -1.669158
C -0.708489 -0.975151 -1.669158
C 0.708489 -0.975151 -1.669158
H 0.000000 2.282252 1.648485
H -2.170551 0.705255 1.648485
H 2.170551 0.705255 1.648485
H -1.341474 -1.846381 1.648485
H 1.341474 -1.846381 1.648485
H 0.000000 2.282252 -1.648485
H -2.170551 0.705255 -1.648485
H 2.170551 0.705255 -1.648485
H -1.341474 -1.846381 -1.648485
H 1.341474 -1.846381 -1.648485
