13
[CAM-B3LYP-D3BJ/def2TZVP]
C 0.000000 1.379810 -0.059208
C 1.194950 -0.689905 -0.059208
C -1.194950 -0.689905 -0.059208
N 0.000000 0.000000 0.367641
H -0.882793 1.889146 0.327890
H 0.000000 1.484236 -1.158363
H 0.882793 1.889146 0.327890
H 2.077445 -0.180051 0.327890
H 1.285386 -0.742118 -1.158363
H 1.194652 -1.709094 0.327890
H -1.194652 -1.709094 0.327890
H -1.285386 -0.742118 -1.158363
H -2.077445 -0.180051 0.327890
