10
CAM-B3LYP-D3BJ/def2TZVP
C 0.602482 1.733667 0.000000
C -0.602482 -1.733667 0.000000
C 0.602482 0.407143 0.000000
C -0.602482 -0.407143 0.000000
H 1.522323 2.301617 0.000000
H -0.323523 2.295997 0.000000
H -1.522323 -2.301617 0.000000
H 0.323523 -2.295997 0.000000
H 1.546198 -0.129812 0.000000
H -1.546198 0.129812 0.000000
