12
[CAM-B3LYP-D3BJ/def2TZVP]
C 0.000000 1.385284 0.000000
C 1.199691 0.692642 0.000000
C -1.199691 0.692642 0.000000
C 1.199691 -0.692642 0.000000
C -1.199691 -0.692642 0.000000
C 0.000000 -1.385284 0.000000
H 0.000000 2.467381 0.000000
H 0.000000 -2.467381 0.000000
H -2.136814 1.233690 0.000000
H 2.136814 -1.233690 0.000000
H 2.136814 1.233690 0.000000
H -2.136814 -1.233690 0.000000
