11
[CAM-B3LYP-D3BJ/def2TZVP]
C 0.000000 0.000000 0.589536
C 0.000000 1.309988 -0.235386
C 0.000000 -1.309988 -0.235386
F 1.091879 0.000000 1.365254
F -1.091879 0.000000 1.365254
F 0.000000 2.340242 0.600378
F 0.000000 -2.340242 0.600378
F 1.080512 1.380149 -1.002610
F -1.080512 1.380149 -1.002610
F -1.080512 -1.380149 -1.002610
F 1.080512 -1.380149 -1.002610
