11
[CAM-B3LYP-D3BJ/def2TZVP]
C 0.000000 0.000000 0.584573
C 0.000000 1.265948 -0.258562
C 0.000000 -1.265948 -0.258562
H 0.880449 1.307051 -0.903048
H -0.880449 1.307051 -0.903048
H -0.880449 -1.307051 -0.903048
H 0.000000 2.162577 0.362218
H 0.880449 -1.307051 -0.903048
H 0.000000 -2.162577 0.362218
H 0.873490 0.000000 1.241529
H -0.873490 0.000000 1.241529
