12
[CAM-B3LYP-D3BJ/def2TZVP]
C -1.846052 0.018507 -0.275372
C -0.716811 -0.296015 0.334344
C 1.714804 -0.244570 -0.291130
C 0.535885 0.518883 0.305206
H -2.717945 -0.619656 -0.221791
H -1.940749 0.931696 -0.851605
H -0.664096 -1.223926 0.898822
H 2.623566 0.357500 -0.271145
H 1.513848 -0.522634 -1.326238
H 1.910316 -1.162035 0.266678
H 0.359326 1.436929 -0.259134
H 0.788780 0.821291 1.326123
